@<TRIPOS>MOLECULE
generated by VMD
    8    7    1    0    0
SMALL
NO_CHARGES
****
Energy = 0

@<TRIPOS>ATOM
      1  C1        -0.2340    0.3760   -0.0070   C1    0  UNK        0.000000
      2  C2         0.5560   -0.1200   -1.2210   C2    0  UNK        0.000000
      3  H1        -0.2580    1.4900    0.0260   H1    0  UNK        0.000000
      4  H2        -1.2870    0.0120   -0.0400   H2    0  UNK        0.000000
      5  H3         0.2240    0.0150    0.9430   H3    0  UNK        0.000000
      6  H4         0.5800   -1.2340   -1.2540   H4    0  UNK        0.000000
      7  H5         0.0980    0.2420   -2.1710   H5    0  UNK        0.000000
      8  H6         1.6090    0.2440   -1.1880   H6    0  UNK        0.000000
@<TRIPOS>BOND
    1     1     3  1
    2     1     4  1
    3     1     2  1
    4     1     5  1
    5     2     6  1
    6     2     7  1
    7     2     8  1

@<TRIPOS>SUBSTRUCTURE
1 ****        1 TEMP                        0 ****  **** 0 ROOT
